15951529
  -OEChem-05302309423D

 48 50  0     0  0  0  0  0  0999 V2000
    0.1657    1.1150    1.4113 S   0  0  0  0  0  0  0  0  0  0  0  0
   -5.8995   -1.4283    0.5251 F   0  0  0  0  0  0  0  0  0  0  0  0
    3.6195    3.1488   -0.3259 F   0  0  0  0  0  0  0  0  0  0  0  0
    5.4054    2.7851    0.8497 F   0  0  0  0  0  0  0  0  0  0  0  0
    5.4545    2.5188   -1.3079 F   0  0  0  0  0  0  0  0  0  0  0  0
    1.3282   -3.2530   -0.8529 O   0  0  0  0  0  0  0  0  0  0  0  0
   -7.2932    0.5451   -0.4942 O   0  0  0  0  0  0  0  0  0  0  0  0
   -1.1211   -1.0095    0.1636 N   0  0  0  0  0  0  0  0  0  0  0  0
    1.1445   -1.1134    0.0966 N   0  0  0  0  0  0  0  0  0  0  0  0
   -6.4271    2.6213    0.0680 N   0  0  0  0  0  0  0  0  0  0  0  0
    7.7793    0.4166    0.0864 N   0  0  0  0  0  0  0  0  0  0  0  0
   -0.8343   -2.4126   -0.1432 C   0  0  0  0  0  0  0  0  0  0  0  0
    0.6786   -2.3323   -0.3672 C   0  0  0  0  0  0  0  0  0  0  0  0
   -1.0280   -3.3515    1.0563 C   0  0  0  0  0  0  0  0  0  0  0  0
   -1.4871   -2.9445   -1.4218 C   0  0  0  0  0  0  0  0  0  0  0  0
    0.0764   -0.3061    0.5093 C   0  0  0  0  0  0  0  0  0  0  0  0
   -2.4336   -0.4389    0.0707 C   0  0  0  0  0  0  0  0  0  0  0  0
    2.5338   -0.7823    0.0933 C   0  0  0  0  0  0  0  0  0  0  0  0
   -3.5521   -1.2222    0.3468 C   0  0  0  0  0  0  0  0  0  0  0  0
   -2.5854    0.8970   -0.2947 C   0  0  0  0  0  0  0  0  0  0  0  0
    2.9347    0.5465   -0.0476 C   0  0  0  0  0  0  0  0  0  0  0  0
    3.4906   -1.7880    0.2314 C   0  0  0  0  0  0  0  0  0  0  0  0
   -4.8287   -0.6672    0.2571 C   0  0  0  0  0  0  0  0  0  0  0  0
   -3.8620    1.4519   -0.3847 C   0  0  0  0  0  0  0  0  0  0  0  0
    4.2917    0.8694   -0.0506 C   0  0  0  0  0  0  0  0  0  0  0  0
   -4.9835    0.6700   -0.1087 C   0  0  0  0  0  0  0  0  0  0  0  0
    4.8476   -1.4651    0.2286 C   0  0  0  0  0  0  0  0  0  0  0  0
    5.2482   -0.1364    0.0874 C   0  0  0  0  0  0  0  0  0  0  0  0
    4.6841    2.3041   -0.2038 C   0  0  0  0  0  0  0  0  0  0  0  0
   -6.3128    1.2531   -0.2036 C   0  0  0  0  0  0  0  0  0  0  0  0
    6.6466    0.1690    0.0869 C   0  0  0  0  0  0  0  0  0  0  0  0
   -7.6809    3.3396    0.0382 C   0  0  0  0  0  0  0  0  0  0  0  0
   -2.0765   -3.5516    1.2818 H   0  0  0  0  0  0  0  0  0  0  0  0
   -0.5556   -4.3240    0.8717 H   0  0  0  0  0  0  0  0  0  0  0  0
   -0.5715   -2.9390    1.9641 H   0  0  0  0  0  0  0  0  0  0  0  0
   -1.0744   -3.9214   -1.6998 H   0  0  0  0  0  0  0  0  0  0  0  0
   -2.5674   -3.0763   -1.3219 H   0  0  0  0  0  0  0  0  0  0  0  0
   -1.3105   -2.2663   -2.2651 H   0  0  0  0  0  0  0  0  0  0  0  0
   -3.4909   -2.2578    0.6479 H   0  0  0  0  0  0  0  0  0  0  0  0
   -1.7498    1.5176   -0.6004 H   0  0  0  0  0  0  0  0  0  0  0  0
    2.2257    1.3348   -0.2681 H   0  0  0  0  0  0  0  0  0  0  0  0
    3.2294   -2.8277    0.3982 H   0  0  0  0  0  0  0  0  0  0  0  0
   -3.9449    2.4834   -0.7158 H   0  0  0  0  0  0  0  0  0  0  0  0
    5.5806   -2.2595    0.3490 H   0  0  0  0  0  0  0  0  0  0  0  0
   -5.6155    3.1439    0.3810 H   0  0  0  0  0  0  0  0  0  0  0  0
   -7.4808    4.3750   -0.2468 H   0  0  0  0  0  0  0  0  0  0  0  0
   -8.1169    3.3103    1.0398 H   0  0  0  0  0  0  0  0  0  0  0  0
   -8.3693    2.8800   -0.6753 H   0  0  0  0  0  0  0  0  0  0  0  0
  1 16  2  0  0  0  0
  2 23  1  0  0  0  0
  3 29  1  0  0  0  0
  4 29  1  0  0  0  0
  5 29  1  0  0  0  0
  6 13  2  0  0  0  0
  7 30  2  0  0  0  0
  8 12  1  0  0  0  0
  8 16  1  0  0  0  0
  8 17  1  0  0  0  0
  9 13  1  0  0  0  0
  9 16  1  0  0  0  0
  9 18  1  0  0  0  0
 10 30  1  0  0  0  0
 10 32  1  0  0  0  0
 10 45  1  0  0  0  0
 11 31  3  0  0  0  0
 12 13  1  0  0  0  0
 12 14  1  0  0  0  0
 12 15  1  0  0  0  0
 14 33  1  0  0  0  0
 14 34  1  0  0  0  0
 14 35  1  0  0  0  0
 15 36  1  0  0  0  0
 15 37  1  0  0  0  0
 15 38  1  0  0  0  0
 17 19  2  0  0  0  0
 17 20  1  0  0  0  0
 18 21  2  0  0  0  0
 18 22  1  0  0  0  0
 19 23  1  0  0  0  0
 19 39  1  0  0  0  0
 20 24  2  0  0  0  0
 20 40  1  0  0  0  0
 21 25  1  0  0  0  0
 21 41  1  0  0  0  0
 22 27  2  0  0  0  0
 22 42  1  0  0  0  0
 23 26  2  0  0  0  0
 24 26  1  0  0  0  0
 24 43  1  0  0  0  0
 25 28  2  0  0  0  0
 25 29  1  0  0  0  0
 26 30  1  0  0  0  0
 27 28  1  0  0  0  0
 27 44  1  0  0  0  0
 28 31  1  0  0  0  0
 32 46  1  0  0  0  0
 32 47  1  0  0  0  0
 32 48  1  0  0  0  0
M  END
> <PUBCHEM_COMPOUND_CID>
15951529

> <PUBCHEM_CONFORMER_RMSD>
0.8

> <PUBCHEM_CONFORMER_DIVERSEORDER>
7
35
3
42
34
4
50
44
8
1
33
47
13
10
40
48
14
49
6
45
38
18
39
31
23
24
41
9
27
46
37
25
2
16
43
22
29
21
11
28
20
36
32
5
30
17
26
19
12
15

> <PUBCHEM_MMFF94_PARTIAL_CHARGES>
37
1 -0.38
10 -0.73
11 -0.56
12 0.36
13 0.57
16 0.5
17 0.12
18 0.12
19 -0.15
2 -0.19
20 -0.15
21 -0.15
22 -0.15
23 0.19
24 -0.15
25 -0.14
26 0.09
27 -0.15
28 0.07
29 1.16
3 -0.34
30 0.54
31 0.48
32 0.3
39 0.15
4 -0.34
40 0.15
41 0.15
42 0.15
43 0.15
44 0.15
45 0.37
5 -0.34
6 -0.57
7 -0.57
8 -0.48
9 -0.24

> <PUBCHEM_EFFECTIVE_ROTOR_COUNT>
5.6

> <PUBCHEM_PHARMACOPHORE_FEATURES>
9
1 1 acceptor
1 10 donor
1 11 acceptor
1 6 acceptor
1 7 acceptor
3 12 14 15 hydrophobe
5 8 9 12 13 16 rings
6 17 19 20 23 24 26 rings
6 18 21 22 25 27 28 rings

> <PUBCHEM_HEAVY_ATOM_COUNT>
32

> <PUBCHEM_ATOM_DEF_STEREO_COUNT>
0

> <PUBCHEM_ATOM_UDEF_STEREO_COUNT>
0

> <PUBCHEM_BOND_DEF_STEREO_COUNT>
0

> <PUBCHEM_BOND_UDEF_STEREO_COUNT>
0

> <PUBCHEM_ISOTOPIC_ATOM_COUNT>
0

> <PUBCHEM_COMPONENT_COUNT>
1

> <PUBCHEM_CACTVS_TAUTO_COUNT>
2

> <PUBCHEM_CONFORMER_ID>
00F366A900000007

> <PUBCHEM_MMFF94_ENERGY>
116.9527

> <PUBCHEM_FEATURE_SELFOVERLAP>
45.672

> <PUBCHEM_SHAPE_FINGERPRINT>
10 15 18114468873242909257
10411042 1 17546445579550526246
10673678 19 18342178864551503297
10835480 77 18337389336709947029
11135609 187 18343017804914485113
11578080 2 17272834653724552970
12107183 9 18335410224391471490
12422481 6 17603586326803154101
12788726 201 17632021862034351528
12838862 33 18270382950487198440
12925494 130 18337388343860468768
13248334 5 18050005493674868039
13402501 40 18409729560395645833
13583140 156 17967823760113778978
13785724 45 17760925148080324618
13944108 23 17910392789088351809
14117953 113 18341052939513290860
14790565 3 18412265038794363065
15183329 4 18412263921670668049
15419008 145 18115293485542210976
15510800 12 11671482535610223245
16087824 20 18337954489955795604
17980427 23 17967820453315872295
18335252 114 18339636750913545996
18608769 82 18411140282092957803
19053607 189 17977659042350030344
19302320 297 18261116244560499461
19611394 137 17896896533217855259
20691028 202 18410290332848465229
20715895 44 18411982447052165992
21033648 29 18411690015339746064
21033650 10 14764361405351459227
23227448 37 18338517568145923014
23559900 14 18201998859436970362
23569914 152 17843425998469136532
249057 3 18411419506274436614
255183 451 17554613898614449350
2838139 119 18341327881079788023
3004659 81 18410291420107765392
335352 9 18411419514906303142
3411729 13 18337953368515572615
350125 39 18409446977892275340
3633792 109 18200880574090243138
4073 2 17895481422096063666
4169191 19 18338515232506951933
5104073 3 18113339683211861179
57724786 102 17096652192198454532
99344 41 18411134710311813122

> <PUBCHEM_SHAPE_MULTIPOLES>
601.64
19.13
3.82
0.9
7.74
0.03
0.02
-16.97
-0.9
0.64
-0.4
-0.09
0.16
-0.08

> <PUBCHEM_SHAPE_SELFOVERLAP>
1301.75

> <PUBCHEM_SHAPE_VOLUME>
336.1

> <PUBCHEM_COORDINATE_TYPE>
2
5
10

$$$$
